New loadshape.LS_BT1 npts=144 minterval=10 mult=(0.568 0.563 0.56 0.567 0.562 0.563 0.564 0.556 0.546 0.543 0.541 0.539 0.532 0.53 0.53 0.529 0.532 0.531 0.53 0.527 0.516 0.507 0.502 0.499 0.494 0.493 0.49 0.494 0.497 0.501 0.502 0.509 0.51 0.511 0.506 0.507 0.51 0.507 0.509 0.514 0.523 0.527 0.531 0.535 0.542 0.544 0.545 0.553 0.556 0.561 0.562 0.561 0.562 0.562 0.565 0.567 0.566 0.572 0.579 0.582 0.587 0.588 0.598 0.6 0.599 0.592 0.583 0.576 0.565 0.554 0.544 0.544 0.546 0.544 0.544 0.548 0.549 0.549 0.549 0.564 0.579 0.59 0.609 0.632 0.653 0.667 0.698 0.703 0.705 0.711 0.717 0.721 0.726 0.722 0.702 0.7 0.697 0.696 0.703 0.712 0.734 0.741 0.765 0.771 0.783 0.812 0.878 0.912 0.972 0.985 1 0.99 0.982 0.988 0.978 0.967 0.934 0.912 0.898 0.892 0.89 0.888 0.886 0.885 0.878 0.87 0.843 0.818 0.798 0.756 0.743 0.732 0.724 0.721 0.712 0.705 0.706 0.703 0.692 0.672 0.656 0.632 0.598 0.578)
New loadshape.LS_BT2 npts=144 minterval=10 mult=(0.587 0.588 0.598 0.6 0.599 0.592 0.583 0.576 0.565 0.554 0.544 0.544 0.546 0.544 0.544 0.548 0.549 0.549 0.549 0.564 0.579 0.59 0.609 0.632 0.653 0.667 0.698 0.703 0.705 0.711 0.717 0.721 0.726 0.722 0.702 0.7 0.697 0.696 0.703 0.712 0.734 0.741 0.765 0.771 0.783 0.812 0.878 0.9 0.9 0.896 0.92 0.921 0.917 0.918 0.919 0.919 0.918 0.917 0.898 0.892 0.89 0.888 0.886 0.885 0.878 0.87 0.843 0.818 0.798 0.756 0.743 0.732 0.689 0.656 0.623 0.612 0.654 0.634 0.692 0.672 0.656 0.878 0.912 0.972 0.985 1 0.99 0.982 0.988 0.978 0.967 0.934 0.912 0.898 0.892 0.89 0.888 0.886 0.885 0.878 0.87 0.843 0.818 0.798 0.756 0.743 0.732 0.724 0.721 0.712 0.705 0.706 0.703 0.692 0.672 0.656 0.632 0.599 0.592 0.583 0.576 0.565 0.6 0.599 0.592 0.583 0.576 0.565 0.554 0.544 0.544 0.546 0.544 0.544 0.548 0.549 0.549 0.536 0.545 0.554 0.544 0.565 0.554 0.544)
New loadshape.LS_BT3 npts=144 minterval=10 mult=(0.511 0.506 0.504 0.51 0.505 0.506 0.507 0.5 0.491 0.488 0.486 0.485 0.478 0.477 0.477 0.476 0.478 0.477 0.477 0.474 0.464 0.456 0.467 0.466 0.47 0.478 0.49 0.494 0.497 0.501 0.502 0.509 0.51 0.511 0.506 0.507 0.51 0.507 0.509 0.514 0.523 0.527 0.531 0.535 0.542 0.544 0.545 0.553 0.556 0.561 0.562 0.561 0.562 0.562 0.565 0.567 0.566 0.572 0.579 0.582 0.587 0.588 0.598 0.6 0.599 0.592 0.583 0.576 0.565 0.554 0.544 0.544 0.546 0.544 0.544 0.548 0.549 0.549 0.549 0.564 0.579 0.59 0.609 0.632 0.653 0.667 0.698 0.703 0.705 0.711 0.717 0.721 0.726 0.722 0.702 0.7 0.697 0.696 0.705 0.711 0.717 0.721 0.726 0.722 0.702 0.7 0.697 0.696 0.703 0.712 0.771 0.783 0.812 0.878 0.912 0.908 0.912 0.9 0.898 0.892 0.89 0.888 0.886 0.885 0.878 0.87 0.878 0.878 0.912 0.972 0.985 1 0.99 0.982 0.988 0.978 0.967 0.934 0.912 0.898 0.892 0.89 0.89 0.89)
New loadshape.LS_MT1 npts=144 minterval=10 mult=(0.368 0.435 0.413 0.417 0.406 0.421 0.413 0.409 0.397 0.415 0.397 0.42 0.389 0.407 0.388 0.415 0.4 0.404 0.393 0.411 0.398 0.407 0.396 0.418 0.395 0.413 0.4 0.41 0.413 0.41 0.409 0.401 0.414 0.443 0.471 0.387 0.44 0.572 0.442 0.668 0.829 0.857 0.869 0.847 0.87 0.837 0.885 0.883 0.881 0.898 0.894 0.868 0.911 0.897 0.899 0.932 0.981 0.972 0.894 0.954 0.944 0.883 0.833 0.973 0.958 0.966 0.903 1 0.984 0.987 0.955 0.76 0.834 0.884 0.867 0.817 0.768 0.753 0.81 0.763 0.815 0.813 0.836 0.849 0.878 0.894 0.915 0.794 0.926 0.899 0.821 0.79 0.795 0.761 0.723 0.811 0.879 0.895 0.888 0.884 0.866 0.853 0.85 0.883 0.83 0.843 0.737 0.55 0.258 0.163 0.164 0.146 0.134 0.142 0.138 0.128 0.127 0.126 0.129 0.137 0.13 0.137 0.132 0.138 0.14 0.119 0.123 0.114 0.117 0.124 0.122 0.127 0.114 0.118 0.127 0.114 0.117 0.12 0.119 0.19 0.207 0.213 0.208 0.221)
New loadshape.LS_GD1_CARGA npts=144 minterval=10 mult=(0.568 0.563 0.56 0.567 0.562 0.563 0.564 0.556 0.546 0.543 0.541 0.539 0.532 0.53 0.53 0.529 0.532 0.531 0.53 0.527 0.516 0.507 0.502 0.499 0.494 0.493 0.49 0.494 0.497 0.501 0.502 0.509 0.51 0.511 0.506 0.491 0.471 0.468 0.466 0.461 0.452 0.442 0.431 0.413 0.402 0.387 0.345 0.326 0.256 0.124 0.098 0 0 0 0 0 0 0 0 0 0 0 0 0 0 0 0 0 0 0 0 0 0 0 0 0 0 0 0 0 0 0 0 0 0 0 0 0 0 0 0 0 0 0.04 0.293 0.367 0.489 0.512 0.598 0.612 0.656 0.7 0.71 0.738 0.783 0.812 0.878 0.912 0.972 0.985 1 0.99 0.982 0.988 0.978 0.967 0.934 0.912 0.898 0.892 0.89 0.888 0.886 0.885 0.878 0.87 0.843 0.818 0.798 0.756 0.743 0.732 0.724 0.721 0.712 0.705 0.706 0.703 0.692 0.672 0.656 0.632 0.598 0.578)
New loadshape.LS_GD1_GEN npts=144 minterval=10 mult=(0 0 0 0 0 0 0 0 0 0 0 0 0 0 0 0 0 0 0 0 0 0 0 0 0 0 0 0 0 0 0 0 0 0 0 0 0 0 0 0 0 0 0 0 0 0 0 0 0 0 0 0.04 0.09 0.26 0.3 0.36 0.41 0.43 0.47 0.49 0.55 0.59 0.602 0.61 0.608 0.62 0.63 0.632 0.63 0.631 0.64 0.63 0.634 0.613 0.612 0.602 0.601 0.605 0.6 0.598 0.579 0.567 0.543 0.523 0.45 0.42 0.38 0.32 0.298 0.16 0.11 0.09 0.035 0 0 0 0 0 0 0 0 0 0 0 0 0 0 0 0 0 0 0 0 0 0 0 0 0 0 0 0 0 0 0 0 0 0 0 0 0 0 0 0 0 0 0 0 0 0 0 0 0 0 0)
New loadshape.LS_IP npts=144 minterval=10 mult=(1 1 1 1 1 1 1 1 1 1 1 1 1 1 1 1 1 1 1 1 1 1 1 1 1 1 1 1 1 1 1 1 1 1 1 0 0 0 0 0 0 0 0 0 0 0 0 0 0 0 0 0 0 0 0 0 0 0 0 0 0 0 0 0 0 0 0 0 0 0 0 0 0 0 0 0 0 0 0 0 0 0 0 0 0 0 0 0 0 0 0 0 0 0 0 0 0 0 0 0 0 0 0 0 0 0 0 1 1 1 1 1 1 1 1 1 1 1 1 1 1 1 1 1 1 1 1 1 1 1 1 1 1 1 1 1 1 1 1 1 1 1 1 1)
New loadshape.LS_GD2 npts=144 minterval=10 mult=(0.568 0.563 0.56 0.567 0.562 0.563 0.564 0.556 0.546 0.543 0.541 0.539 0.532 0.53 0.53 0.529 0.532 0.531 0.53 0.527 0.516 0.507 0.502 0.499 0.494 0.493 0.49 0.494 0.497 0.501 0.502 0.509 0.51 0.511 0.506 0.491 0.471 0.468 0.466 0.461 0.452 0.442 0.431 0.413 0.402 0.387 0.345 0.326 0.256 0.124 0.098 -0.04 -0.09 -0.26 -0.3 -0.36 -0.41 -0.43 -0.47 -0.49 -0.55 -0.59 -0.602 -0.61 -0.608 -0.62 -0.63 -0.632 -0.63 -0.631 -0.64 -0.63 -0.634 -0.613 -0.612 -0.602 -0.601 -0.605 -0.6 -0.598 -0.579 -0.567 -0.543 -0.523 -0.45 -0.42 -0.38 -0.32 -0.298 -0.16 -0.11 -0.09 -0.035 0.04 0.293 0.367 0.489 0.512 0.598 0.612 0.656 0.7 0.71 0.738 0.783 0.812 0.878 0.912 0.972 0.985 1 0.99 0.982 0.988 0.978 0.967 0.934 0.912 0.898 0.892 0.89 0.888 0.886 0.885 0.878 0.87 0.843 0.818 0.798 0.756 0.743 0.732 0.724 0.721 0.712 0.705 0.706 0.703 0.692 0.672 0.656 0.632 0.598 0.578)
